*SPEF "ieee 1481-1999"
*DESIGN "alu32"
*DATE "11:11:11 Fri 11 11, 1111"
*VENDOR "OpenRCX"
*PROGRAM "Parallel Extraction"
*VERSION "1.0"
*DESIGN_FLOW "NAME_SCOPE LOCAL" "PIN_CAP NONE"
*DIVIDER /
*DELIMITER :
*BUS_DELIMITER []
*T_UNIT 1 NS
*C_UNIT 1 PF
*R_UNIT 1 OHM
*L_UNIT 1 HENRY

*NAME_MAP
*1 A[0]
*2 A[10]
*3 A[11]
*4 A[12]
*5 A[13]
*6 A[14]
*7 A[15]
*8 A[16]
*9 A[17]
*10 A[18]
*11 A[19]
*12 A[1]
*13 A[20]
*14 A[21]
*15 A[22]
*16 A[23]
*17 A[24]
*18 A[25]
*19 A[26]
*20 A[27]
*21 A[28]
*22 A[29]
*23 A[2]
*24 A[30]
*25 A[31]
*26 A[3]
*27 A[4]
*28 A[5]
*29 A[6]
*30 A[7]
*31 A[8]
*32 A[9]
*33 B[0]
*34 B[10]
*35 B[11]
*36 B[12]
*37 B[13]
*38 B[14]
*39 B[15]
*40 B[16]
*41 B[17]
*42 B[18]
*43 B[19]
*44 B[1]
*45 B[20]
*46 B[21]
*47 B[22]
*48 B[23]
*49 B[24]
*50 B[25]
*51 B[26]
*52 B[27]
*53 B[28]
*54 B[29]
*55 B[2]
*56 B[30]
*57 B[31]
*58 B[3]
*59 B[4]
*60 B[5]
*61 B[6]
*62 B[7]
*63 B[8]
*64 B[9]
*65 Enable
*66 Result[0]
*67 Result[10]
*68 Result[11]
*69 Result[12]
*70 Result[13]
*71 Result[14]
*72 Result[15]
*73 Result[16]
*74 Result[17]
*75 Result[18]
*76 Result[19]
*77 Result[1]
*78 Result[20]
*79 Result[21]
*80 Result[22]
*81 Result[23]
*82 Result[24]
*83 Result[25]
*84 Result[26]
*85 Result[27]
*86 Result[28]
*87 Result[29]
*88 Result[2]
*89 Result[30]
*90 Result[31]
*91 Result[32]
*92 Result[33]
*93 Result[34]
*94 Result[35]
*95 Result[36]
*96 Result[37]
*97 Result[38]
*98 Result[39]
*99 Result[3]
*100 Result[40]
*101 Result[41]
*102 Result[42]
*103 Result[43]
*104 Result[44]
*105 Result[45]
*106 Result[46]
*107 Result[47]
*108 Result[48]
*109 Result[49]
*110 Result[4]
*111 Result[50]
*112 Result[51]
*113 Result[52]
*114 Result[53]
*115 Result[54]
*116 Result[55]
*117 Result[56]
*118 Result[57]
*119 Result[58]
*120 Result[59]
*121 Result[5]
*122 Result[60]
*123 Result[61]
*124 Result[62]
*125 Result[63]
*126 Result[6]
*127 Result[7]
*128 Result[8]
*129 Result[9]
*132 opcode[0]
*133 opcode[1]
*134 opcode[2]
*135 _0000_
*136 _0001_
*137 _0002_
*138 _0003_
*139 _0004_
*140 _0005_
*141 _0006_
*142 _0007_
*143 _0008_
*144 _0009_
*145 _0010_
*146 _0011_
*147 _0012_
*148 _0013_
*149 _0014_
*150 _0015_
*151 _0016_
*152 _0017_
*153 _0018_
*154 _0019_
*155 _0020_
*156 _0021_
*157 _0022_
*158 _0023_
*159 _0024_
*160 _0025_
*161 _0026_
*162 _0027_
*163 _0028_
*164 _0029_
*165 _0030_
*166 _0031_
*167 _0032_
*168 _0033_
*169 _0034_
*170 _0035_
*171 _0036_
*172 _0037_
*173 _0038_
*174 _0039_
*175 _0040_
*176 _0041_
*177 _0042_
*178 _0043_
*179 _0044_
*180 _0045_
*181 _0046_
*182 _0047_
*183 _0048_
*184 _0049_
*185 _0050_
*186 _0051_
*187 _0052_
*188 _0053_
*189 _0054_
*190 _0055_
*191 _0056_
*192 _0057_
*193 _0058_
*194 _0059_
*195 _0060_
*196 _0061_
*197 _0062_
*198 _0063_
*199 _0064_
*200 _0065_
*201 _0066_
*202 _0067_
*203 _0068_
*204 _0069_
*205 _0070_
*206 _0071_
*207 _0072_
*208 _0073_
*209 _0074_
*210 _0075_
*211 _0076_
*212 _0077_
*213 _0078_
*214 _0079_
*215 _0080_
*216 _0081_
*217 _0082_
*218 _0083_
*219 _0084_
*220 _0085_
*221 _0086_
*222 _0087_
*223 _0088_
*224 _0089_
*225 _0090_
*226 _0091_
*227 _0092_
*228 _0093_
*229 _0094_
*230 _0095_
*231 _0096_
*232 _0097_
*233 _0098_
*234 _0099_
*235 _0100_
*236 _0101_
*237 _0102_
*238 _0103_
*239 _0104_
*240 _0105_
*241 _0106_
*242 _0107_
*243 _0108_
*244 _0109_
*245 _0110_
*246 _0111_
*247 _0112_
*248 _0113_
*249 _0114_
*250 _0115_
*251 _0116_
*252 _0117_
*253 _0118_
*254 _0119_
*255 _0120_
*256 _0121_
*257 _0122_
*258 _0123_
*259 _0124_
*260 _0125_
*261 _0126_
*262 _0127_
*263 _0128_
*264 _0129_
*265 _0130_
*266 _0131_
*267 _0132_
*268 _0133_
*269 _0134_
*270 _0135_
*271 _0136_
*272 _0137_
*273 _0138_
*274 _0139_
*275 _0140_
*276 _0141_
*277 _0142_
*278 _0143_
*279 _0144_
*280 _0145_
*281 _0146_
*282 _0147_
*283 _0148_
*284 _0149_
*285 _0150_
*286 _0151_
*287 _0152_
*288 _0153_
*289 _0154_
*290 _0155_
*291 _0156_
*292 _0157_
*293 _0158_
*294 _0159_
*295 _0160_
*296 _0161_
*297 _0162_
*298 _0163_
*299 _0164_
*300 _0165_
*301 _0166_
*302 _0167_
*303 _0168_
*304 _0169_
*305 _0170_
*306 _0171_
*307 _0172_
*308 _0173_
*309 _0174_
*310 _0175_
*311 _0176_
*312 _0177_
*313 _0178_
*314 _0179_
*315 _0180_
*316 _0181_
*317 _0182_
*318 _0183_
*319 _0184_
*320 _0185_
*321 _0186_
*322 _0187_
*323 _0188_
*324 _0189_
*325 _0190_
*326 _0191_
*327 _0192_
*328 _0193_
*329 _0194_
*330 _0195_
*331 _0196_
*332 _0197_
*333 _0198_
*334 _0199_
*335 _0200_
*336 _0201_
*337 _0202_
*338 _0203_
*339 _0204_
*340 _0205_
*341 _0206_
*342 _0207_
*343 _0208_
*344 _0209_
*345 _0210_
*346 _0211_
*347 _0212_
*348 _0213_
*349 _0214_
*350 _0215_
*351 _0216_
*352 _0217_
*353 _0218_
*354 _0219_
*355 _0220_
*356 _0221_
*357 _0222_
*358 _0223_
*359 _0224_
*360 _0225_
*361 _0226_
*362 _0227_
*363 _0228_
*364 _0229_
*365 _0230_
*366 _0231_
*367 _0232_
*368 _0233_
*369 _0234_
*370 _0235_
*371 _0236_
*372 _0237_
*373 _0238_
*374 _0239_
*375 _0240_
*376 _0241_
*377 _0242_
*378 _0243_
*379 _0244_
*380 _0245_
*381 _0246_
*382 _0247_
*383 _0248_
*384 _0249_
*385 _0250_
*386 _0251_
*387 _0252_
*388 _0253_
*389 _0254_
*390 _0255_
*391 _0256_
*392 _0257_
*393 _0258_
*394 _0259_
*395 _0260_
*396 _0261_
*397 _0262_
*398 _0263_
*399 _0264_
*400 _0265_
*401 _0266_
*402 _0267_
*403 _0268_
*404 _0269_
*405 _0270_
*406 _0271_
*407 _0272_
*408 _0273_
*409 _0274_
*410 _0275_
*411 _0276_
*412 _0277_
*413 _0278_
*414 _0279_
*415 _0280_
*416 _0281_
*417 _0282_
*418 _0283_
*419 _0284_
*420 _0285_
*421 _0286_
*422 _0287_
*423 _0288_
*424 _0289_
*425 _0290_
*426 _0291_
*427 _0292_
*428 _0293_
*429 _0294_
*430 _0295_
*431 _0296_
*432 _0297_
*433 _0298_
*434 _0299_
*435 _0300_
*436 _0301_
*437 _0302_
*438 _0303_
*439 _0304_
*440 _0305_
*441 _0306_
*442 _0307_
*443 _0308_
*444 _0309_
*445 _0310_
*446 _0311_
*447 _0312_
*448 _0313_
*449 _0314_
*450 _0315_
*451 _0316_
*452 _0317_
*453 _0318_
*454 _0319_
*455 _0320_
*456 _0321_
*457 _0322_
*458 _0323_
*459 _0324_
*460 _0325_
*461 _0326_
*462 _0327_
*463 _0328_
*464 _0329_
*465 _0330_
*466 _0331_
*467 _0332_
*468 _0333_
*469 _0334_
*470 _0335_
*471 _0336_
*472 _0337_
*473 _0338_
*474 _0339_
*475 _0340_
*476 _0341_
*477 _0342_
*478 _0343_
*479 _0344_
*480 _0345_
*481 _0346_
*482 _0347_
*483 _0348_
*484 _0349_
*485 _0350_
*486 _0351_
*487 _0352_
*488 _0353_
*489 _0354_
*490 _0355_
*491 _0356_
*492 _0357_
*493 _0358_
*494 _0359_
*495 _0360_
*496 _0361_
*497 _0362_
*498 _0363_
*499 _0364_
*500 _0365_
*501 _0366_
*502 _0367_
*503 _0368_
*504 _0369_
*505 _0370_
*506 _0371_
*507 _0372_
*508 _0373_
*509 _0374_
*510 _0375_
*511 _0376_
*512 _0377_
*513 _0378_
*514 _0379_
*515 _0380_
*516 _0381_
*517 _0382_
*518 _0383_
*519 _0384_
*520 _0385_
*521 _0386_
*522 _0387_
*523 _0388_
*524 _0389_
*525 _0390_
*526 _0391_
*527 _0392_
*528 _0393_
*529 _0394_
*530 _0395_
*531 _0396_
*532 _0397_
*533 _0398_
*534 _0399_
*535 _0400_
*536 _0401_
*537 _0402_
*538 _0403_
*539 _0404_
*540 _0405_
*541 _0406_
*542 _0407_
*543 _0408_
*544 _0409_
*545 _0410_
*546 _0411_
*547 _0412_
*548 _0413_
*549 _0414_
*550 _0415_
*551 _0416_
*552 _0417_
*553 _0418_
*554 _0419_
*555 _0420_
*556 _0421_
*557 _0422_
*558 _0423_
*559 _0424_
*560 _0425_
*561 _0426_
*562 _0427_
*563 _0428_
*564 _0429_
*565 _0430_
*566 _0431_
*567 _0432_
*568 _0433_
*569 _0434_
*570 _0435_
*571 _0436_
*572 _0437_
*573 _0438_
*574 _0439_
*575 _0440_
*576 _0441_
*577 _0442_
*578 _0443_
*579 _0444_
*580 _0445_
*581 _0446_
*582 _0447_
*583 _0448_
*584 _0449_
*585 _0450_
*586 _0451_
*587 _0452_
*588 _0453_
*589 _0454_
*590 _0455_
*591 _0456_
*592 _0457_
*593 _0458_
*594 _0459_
*595 _0460_
*596 _0461_
*597 _0462_
*598 _0463_
*599 _0464_
*600 _0465_
*601 _0466_
*602 _0467_
*603 _0468_
*604 _0469_
*605 _0470_
*606 _0471_
*607 _0472_
*608 _0473_
*609 _0474_
*610 _0475_
*611 _0476_
*612 _0477_
*613 _0478_
*614 _0479_
*615 _0480_
*616 _0481_
*617 _0482_
*618 _0483_
*619 net1
*620 net10
*621 net100
*622 net101
*623 net102
*624 net103
*625 net104
*626 net105
*627 net106
*628 net107
*629 net108
*630 net109
*631 net11
*632 net110
*633 net111
*634 net112
*635 net113
*636 net114
*637 net115
*638 net116
*639 net117
*640 net118
*641 net119
*642 net12
*643 net120
*644 net121
*645 net122
*646 net123
*647 net124
*648 net125
*649 net126
*650 net127
*651 net128
*652 net129
*653 net13
*654 net130
*655 net131
*656 net14
*657 net15
*658 net16
*659 net17
*660 net18
*661 net19
*662 net2
*663 net20
*664 net21
*665 net22
*666 net23
*667 net24
*668 net25
*669 net26
*670 net27
*671 net28
*672 net29
*673 net3
*674 net30
*675 net31
*676 net32
*677 net33
*678 net34
*679 net35
*680 net36
*681 net37
*682 net38
*683 net39
*684 net4
*685 net40
*686 net41
*687 net42
*688 net43
*689 net44
*690 net45
*691 net46
*692 net47
*693 net48
*694 net49
*695 net5
*696 net50
*697 net51
*698 net52
*699 net53
*700 net54
*701 net55
*702 net56
*703 net57
*704 net58
*705 net59
*706 net6
*707 net60
*708 net61
*709 net62
*710 net63
*711 net64
*712 net65
*713 net66
*714 net67
*715 net68
*716 net69
*717 net7
*718 net70
*719 net71
*720 net72
*721 net73
*722 net74
*723 net75
*724 net76
*725 net77
*726 net78
*727 net79
*728 net8
*729 net80
*730 net81
*731 net82
*732 net83
*733 net84
*734 net85
*735 net86
*736 net87
*737 net88
*738 net89
*739 net9
*740 net90
*741 net91
*742 net92
*743 net93
*744 net94
*745 net95
*746 net96
*747 net97
*748 net98
*749 net99
*750 ANTENNA_0
*751 ANTENNA_1
*752 FILLER_0_108
*753 FILLER_0_11
*754 FILLER_0_113
*755 FILLER_0_127
*756 FILLER_0_135
*757 FILLER_0_139
*758 FILLER_0_141
*759 FILLER_0_153
*760 FILLER_0_161
*761 FILLER_0_167
*762 FILLER_0_179
*763 FILLER_0_187
*764 FILLER_0_19
*765 FILLER_0_195
*766 FILLER_0_207
*767 FILLER_0_214
*768 FILLER_0_27
*769 FILLER_0_29
*770 FILLER_0_3
*771 FILLER_0_37
*772 FILLER_0_45
*773 FILLER_0_51
*774 FILLER_0_55
*775 FILLER_0_57
*776 FILLER_0_65
*777 FILLER_0_73
*778 FILLER_0_81
*779 FILLER_0_85
*780 FILLER_0_93
*781 FILLER_0_97
*782 FILLER_10_104
*783 FILLER_10_111
*784 FILLER_10_124
*785 FILLER_10_135
*786 FILLER_10_139
*787 FILLER_10_141
*788 FILLER_10_145
*789 FILLER_10_150
*790 FILLER_10_161
*791 FILLER_10_169
*792 FILLER_10_174
*793 FILLER_10_181
*794 FILLER_10_192
*795 FILLER_10_20
*796 FILLER_10_205
*797 FILLER_10_209
*798 FILLER_10_214
*799 FILLER_10_3
*800 FILLER_10_32
*801 FILLER_10_39
*802 FILLER_10_45
*803 FILLER_10_50
*804 FILLER_10_57
*805 FILLER_10_65
*806 FILLER_10_76
*807 FILLER_10_88
*808 FILLER_10_9
*809 FILLER_11_101
*810 FILLER_11_108
*811 FILLER_11_113
*812 FILLER_11_128
*813 FILLER_11_13
*814 FILLER_11_136
*815 FILLER_11_144
*816 FILLER_11_161
*817 FILLER_11_167
*818 FILLER_11_169
*819 FILLER_11_178
*820 FILLER_11_185
*821 FILLER_11_192
*822 FILLER_11_203
*823 FILLER_11_210
*824 FILLER_11_24
*825 FILLER_11_3
*826 FILLER_11_36
*827 FILLER_11_51
*828 FILLER_11_55
*829 FILLER_11_57
*830 FILLER_11_70
*831 FILLER_11_85
*832 FILLER_11_97
*833 FILLER_12_11
*834 FILLER_12_116
*835 FILLER_12_124
*836 FILLER_12_128
*837 FILLER_12_133
*838 FILLER_12_139
*839 FILLER_12_145
*840 FILLER_12_162
*841 FILLER_12_168
*842 FILLER_12_175
*843 FILLER_12_188
*844 FILLER_12_20
*845 FILLER_12_206
*846 FILLER_12_214
*847 FILLER_12_3
*848 FILLER_12_32
*849 FILLER_12_36
*850 FILLER_12_46
*851 FILLER_12_56
*852 FILLER_12_71
*853 FILLER_12_79
*854 FILLER_12_83
*855 FILLER_12_88
*856 FILLER_12_94
*857 FILLER_13_103
*858 FILLER_13_111
*859 FILLER_13_117
*860 FILLER_13_123
*861 FILLER_13_129
*862 FILLER_13_140
*863 FILLER_13_148
*864 FILLER_13_156
*865 FILLER_13_164
*866 FILLER_13_169
*867 FILLER_13_17
*868 FILLER_13_173
*869 FILLER_13_179
*870 FILLER_13_189
*871 FILLER_13_196
*872 FILLER_13_205
*873 FILLER_13_212
*874 FILLER_13_24
*875 FILLER_13_3
*876 FILLER_13_31
*877 FILLER_13_43
*878 FILLER_13_52
*879 FILLER_13_60
*880 FILLER_13_68
*881 FILLER_13_7
*882 FILLER_13_73
*883 FILLER_13_81
*884 FILLER_14_109
*885 FILLER_14_117
*886 FILLER_14_125
*887 FILLER_14_134
*888 FILLER_14_141
*889 FILLER_14_145
*890 FILLER_14_150
*891 FILLER_14_158
*892 FILLER_14_165
*893 FILLER_14_173
*894 FILLER_14_179
*895 FILLER_14_187
*896 FILLER_14_195
*897 FILLER_14_20
*898 FILLER_14_200
*899 FILLER_14_208
*900 FILLER_14_216
*901 FILLER_14_29
*902 FILLER_14_3
*903 FILLER_14_33
*904 FILLER_14_40
*905 FILLER_14_49
*906 FILLER_14_57
*907 FILLER_14_67
*908 FILLER_14_75
*909 FILLER_14_80
*910 FILLER_14_9
*911 FILLER_14_94
*912 FILLER_15_101
*913 FILLER_15_108
*914 FILLER_15_113
*915 FILLER_15_132
*916 FILLER_15_136
*917 FILLER_15_141
*918 FILLER_15_149
*919 FILLER_15_155
*920 FILLER_15_161
*921 FILLER_15_167
*922 FILLER_15_172
*923 FILLER_15_18
*924 FILLER_15_180
*925 FILLER_15_185
*926 FILLER_15_196
*927 FILLER_15_200
*928 FILLER_15_207
*929 FILLER_15_214
*930 FILLER_15_30
*931 FILLER_15_41
*932 FILLER_15_52
*933 FILLER_15_66
*934 FILLER_15_7
*935 FILLER_15_77
*936 FILLER_15_84
*937 FILLER_15_88
*938 FILLER_15_93
*939 FILLER_16_102
*940 FILLER_16_116
*941 FILLER_16_124
*942 FILLER_16_135
*943 FILLER_16_139
*944 FILLER_16_141
*945 FILLER_16_151
*946 FILLER_16_163
*947 FILLER_16_170
*948 FILLER_16_18
*949 FILLER_16_183
*950 FILLER_16_187
*951 FILLER_16_192
*952 FILLER_16_197
*953 FILLER_16_210
*954 FILLER_16_26
*955 FILLER_16_36
*956 FILLER_16_43
*957 FILLER_16_51
*958 FILLER_16_55
*959 FILLER_16_6
*960 FILLER_16_62
*961 FILLER_16_75
*962 FILLER_16_83
*963 FILLER_16_85
*964 FILLER_16_93
*965 FILLER_16_97
*966 FILLER_17_107
*967 FILLER_17_111
*968 FILLER_17_117
*969 FILLER_17_125
*970 FILLER_17_136
*971 FILLER_17_143
*972 FILLER_17_151
*973 FILLER_17_164
*974 FILLER_17_169
*975 FILLER_17_180
*976 FILLER_17_19
*977 FILLER_17_191
*978 FILLER_17_202
*979 FILLER_17_213
*980 FILLER_17_217
*981 FILLER_17_30
*982 FILLER_17_37
*983 FILLER_17_50
*984 FILLER_17_63
*985 FILLER_17_7
*986 FILLER_17_71
*987 FILLER_17_83
*988 FILLER_17_91
*989 FILLER_18_101
*990 FILLER_18_109
*991 FILLER_18_117
*992 FILLER_18_125
*993 FILLER_18_13
*994 FILLER_18_136
*995 FILLER_18_148
*996 FILLER_18_156
*997 FILLER_18_163
*998 FILLER_18_170
*999 FILLER_18_181
*1000 FILLER_18_188
*1001 FILLER_18_197
*1002 FILLER_18_202
*1003 FILLER_18_212
*1004 FILLER_18_24
*1005 FILLER_18_29
*1006 FILLER_18_37
*1007 FILLER_18_47
*1008 FILLER_18_57
*1009 FILLER_18_6
*1010 FILLER_18_65
*1011 FILLER_18_76
*1012 FILLER_18_85
*1013 FILLER_19_105
*1014 FILLER_19_11
*1015 FILLER_19_111
*1016 FILLER_19_122
*1017 FILLER_19_126
*1018 FILLER_19_136
*1019 FILLER_19_149
*1020 FILLER_19_164
*1021 FILLER_19_175
*1022 FILLER_19_182
*1023 FILLER_19_193
*1024 FILLER_19_207
*1025 FILLER_19_214
*1026 FILLER_19_24
*1027 FILLER_19_3
*1028 FILLER_19_31
*1029 FILLER_19_39
*1030 FILLER_19_47
*1031 FILLER_19_55
*1032 FILLER_19_57
*1033 FILLER_19_61
*1034 FILLER_19_65
*1035 FILLER_19_75
*1036 FILLER_19_87
*1037 FILLER_19_95
*1038 FILLER_1_103
*1039 FILLER_1_111
*1040 FILLER_1_113
*1041 FILLER_1_127
*1042 FILLER_1_136
*1043 FILLER_1_140
*1044 FILLER_1_15
*1045 FILLER_1_150
*1046 FILLER_1_163
*1047 FILLER_1_167
*1048 FILLER_1_169
*1049 FILLER_1_176
*1050 FILLER_1_182
*1051 FILLER_1_19
*1052 FILLER_1_191
*1053 FILLER_1_199
*1054 FILLER_1_205
*1055 FILLER_1_213
*1056 FILLER_1_217
*1057 FILLER_1_24
*1058 FILLER_1_3
*1059 FILLER_1_35
*1060 FILLER_1_43
*1061 FILLER_1_51
*1062 FILLER_1_55
*1063 FILLER_1_57
*1064 FILLER_1_69
*1065 FILLER_1_7
*1066 FILLER_1_82
*1067 FILLER_1_93
*1068 FILLER_1_97
*1069 FILLER_20_105
*1070 FILLER_20_112
*1071 FILLER_20_124
*1072 FILLER_20_136
*1073 FILLER_20_144
*1074 FILLER_20_15
*1075 FILLER_20_154
*1076 FILLER_20_164
*1077 FILLER_20_168
*1078 FILLER_20_175
*1079 FILLER_20_184
*1080 FILLER_20_192
*1081 FILLER_20_206
*1082 FILLER_20_214
*1083 FILLER_20_22
*1084 FILLER_20_3
*1085 FILLER_20_32
*1086 FILLER_20_38
*1087 FILLER_20_42
*1088 FILLER_20_51
*1089 FILLER_20_59
*1090 FILLER_20_67
*1091 FILLER_20_79
*1092 FILLER_20_83
*1093 FILLER_20_92
*1094 FILLER_21_107
*1095 FILLER_21_111
*1096 FILLER_21_113
*1097 FILLER_21_123
*1098 FILLER_21_132
*1099 FILLER_21_144
*1100 FILLER_21_151
*1101 FILLER_21_163
*1102 FILLER_21_167
*1103 FILLER_21_178
*1104 FILLER_21_18
*1105 FILLER_21_189
*1106 FILLER_21_200
*1107 FILLER_21_204
*1108 FILLER_21_213
*1109 FILLER_21_217
*1110 FILLER_21_26
*1111 FILLER_21_34
*1112 FILLER_21_39
*1113 FILLER_21_50
*1114 FILLER_21_57
*1115 FILLER_21_61
*1116 FILLER_21_7
*1117 FILLER_21_71
*1118 FILLER_21_78
*1119 FILLER_21_90
*1120 FILLER_21_99
*1121 FILLER_22_109
*1122 FILLER_22_115
*1123 FILLER_22_124
*1124 FILLER_22_136
*1125 FILLER_22_148
*1126 FILLER_22_155
*1127 FILLER_22_163
*1128 FILLER_22_169
*1129 FILLER_22_177
*1130 FILLER_22_181
*1131 FILLER_22_188
*1132 FILLER_22_197
*1133 FILLER_22_20
*1134 FILLER_22_205
*1135 FILLER_22_214
*1136 FILLER_22_3
*1137 FILLER_22_32
*1138 FILLER_22_40
*1139 FILLER_22_46
*1140 FILLER_22_53
*1141 FILLER_22_61
*1142 FILLER_22_74
*1143 FILLER_22_82
*1144 FILLER_22_85
*1145 FILLER_22_89
*1146 FILLER_22_9
*1147 FILLER_22_99
*1148 FILLER_23_100
*1149 FILLER_23_107
*1150 FILLER_23_111
*1151 FILLER_23_113
*1152 FILLER_23_126
*1153 FILLER_23_13
*1154 FILLER_23_137
*1155 FILLER_23_151
*1156 FILLER_23_155
*1157 FILLER_23_164
*1158 FILLER_23_172
*1159 FILLER_23_180
*1160 FILLER_23_185
*1161 FILLER_23_193
*1162 FILLER_23_198
*1163 FILLER_23_211
*1164 FILLER_23_217
*1165 FILLER_23_25
*1166 FILLER_23_3
*1167 FILLER_23_33
*1168 FILLER_23_40
*1169 FILLER_23_52
*1170 FILLER_23_57
*1171 FILLER_23_72
*1172 FILLER_23_84
*1173 FILLER_23_9
*1174 FILLER_23_90
*1175 FILLER_24_102
*1176 FILLER_24_113
*1177 FILLER_24_124
*1178 FILLER_24_13
*1179 FILLER_24_133
*1180 FILLER_24_139
*1181 FILLER_24_141
*1182 FILLER_24_147
*1183 FILLER_24_162
*1184 FILLER_24_170
*1185 FILLER_24_175
*1186 FILLER_24_183
*1187 FILLER_24_192
*1188 FILLER_24_200
*1189 FILLER_24_214
*1190 FILLER_24_24
*1191 FILLER_24_29
*1192 FILLER_24_42
*1193 FILLER_24_55
*1194 FILLER_24_62
*1195 FILLER_24_72
*1196 FILLER_24_91
*1197 FILLER_25_103
*1198 FILLER_25_111
*1199 FILLER_25_113
*1200 FILLER_25_123
*1201 FILLER_25_130
*1202 FILLER_25_138
*1203 FILLER_25_14
*1204 FILLER_25_151
*1205 FILLER_25_164
*1206 FILLER_25_172
*1207 FILLER_25_185
*1208 FILLER_25_193
*1209 FILLER_25_199
*1210 FILLER_25_20
*1211 FILLER_25_211
*1212 FILLER_25_217
*1213 FILLER_25_29
*1214 FILLER_25_3
*1215 FILLER_25_36
*1216 FILLER_25_44
*1217 FILLER_25_51
*1218 FILLER_25_55
*1219 FILLER_25_57
*1220 FILLER_25_70
*1221 FILLER_25_82
*1222 FILLER_26_103
*1223 FILLER_26_11
*1224 FILLER_26_111
*1225 FILLER_26_117
*1226 FILLER_26_125
*1227 FILLER_26_129
*1228 FILLER_26_136
*1229 FILLER_26_148
*1230 FILLER_26_156
*1231 FILLER_26_164
*1232 FILLER_26_173
*1233 FILLER_26_18
*1234 FILLER_26_181
*1235 FILLER_26_185
*1236 FILLER_26_192
*1237 FILLER_26_197
*1238 FILLER_26_208
*1239 FILLER_26_216
*1240 FILLER_26_26
*1241 FILLER_26_3
*1242 FILLER_26_32
*1243 FILLER_26_39
*1244 FILLER_26_47
*1245 FILLER_26_51
*1246 FILLER_26_55
*1247 FILLER_26_61
*1248 FILLER_26_7
*1249 FILLER_26_71
*1250 FILLER_26_83
*1251 FILLER_26_85
*1252 FILLER_26_93
*1253 FILLER_27_10
*1254 FILLER_27_100
*1255 FILLER_27_107
*1256 FILLER_27_111
*1257 FILLER_27_116
*1258 FILLER_27_124
*1259 FILLER_27_131
*1260 FILLER_27_14
*1261 FILLER_27_148
*1262 FILLER_27_154
*1263 FILLER_27_161
*1264 FILLER_27_167
*1265 FILLER_27_169
*1266 FILLER_27_173
*1267 FILLER_27_18
*1268 FILLER_27_181
*1269 FILLER_27_187
*1270 FILLER_27_193
*1271 FILLER_27_197
*1272 FILLER_27_204
*1273 FILLER_27_214
*1274 FILLER_27_26
*1275 FILLER_27_3
*1276 FILLER_27_33
*1277 FILLER_27_41
*1278 FILLER_27_51
*1279 FILLER_27_55
*1280 FILLER_27_60
*1281 FILLER_27_71
*1282 FILLER_27_79
*1283 FILLER_27_86
*1284 FILLER_27_93
*1285 FILLER_28_103
*1286 FILLER_28_11
*1287 FILLER_28_114
*1288 FILLER_28_121
*1289 FILLER_28_128
*1290 FILLER_28_132
*1291 FILLER_28_136
*1292 FILLER_28_147
*1293 FILLER_28_154
*1294 FILLER_28_165
*1295 FILLER_28_17
*1296 FILLER_28_172
*1297 FILLER_28_181
*1298 FILLER_28_192
*1299 FILLER_28_197
*1300 FILLER_28_207
*1301 FILLER_28_214
*1302 FILLER_28_24
*1303 FILLER_28_3
*1304 FILLER_28_38
*1305 FILLER_28_42
*1306 FILLER_28_49
*1307 FILLER_28_60
*1308 FILLER_28_69
*1309 FILLER_28_73
*1310 FILLER_28_80
*1311 FILLER_28_92
*1312 FILLER_29_105
*1313 FILLER_29_111
*1314 FILLER_29_120
*1315 FILLER_29_131
*1316 FILLER_29_138
*1317 FILLER_29_142
*1318 FILLER_29_146
*1319 FILLER_29_154
*1320 FILLER_29_164
*1321 FILLER_29_169
*1322 FILLER_29_17
*1323 FILLER_29_173
*1324 FILLER_29_180
*1325 FILLER_29_184
*1326 FILLER_29_188
*1327 FILLER_29_194
*1328 FILLER_29_199
*1329 FILLER_29_211
*1330 FILLER_29_217
*1331 FILLER_29_28
*1332 FILLER_29_3
*1333 FILLER_29_35
*1334 FILLER_29_43
*1335 FILLER_29_52
*1336 FILLER_29_65
*1337 FILLER_29_8
*1338 FILLER_29_85
*1339 FILLER_29_98
*1340 FILLER_2_109
*1341 FILLER_2_11
*1342 FILLER_2_123
*1343 FILLER_2_127
*1344 FILLER_2_136
*1345 FILLER_2_149
*1346 FILLER_2_160
*1347 FILLER_2_164
*1348 FILLER_2_169
*1349 FILLER_2_182
*1350 FILLER_2_19
*1351 FILLER_2_190
*1352 FILLER_2_197
*1353 FILLER_2_206
*1354 FILLER_2_214
*1355 FILLER_2_24
*1356 FILLER_2_29
*1357 FILLER_2_3
*1358 FILLER_2_37
*1359 FILLER_2_50
*1360 FILLER_2_57
*1361 FILLER_2_68
*1362 FILLER_2_78
*1363 FILLER_2_85
*1364 FILLER_2_97
*1365 FILLER_30_104
*1366 FILLER_30_110
*1367 FILLER_30_119
*1368 FILLER_30_123
*1369 FILLER_30_133
*1370 FILLER_30_139
*1371 FILLER_30_14
*1372 FILLER_30_149
*1373 FILLER_30_161
*1374 FILLER_30_172
*1375 FILLER_30_185
*1376 FILLER_30_192
*1377 FILLER_30_197
*1378 FILLER_30_21
*1379 FILLER_30_210
*1380 FILLER_30_27
*1381 FILLER_30_3
*1382 FILLER_30_32
*1383 FILLER_30_38
*1384 FILLER_30_42
*1385 FILLER_30_52
*1386 FILLER_30_59
*1387 FILLER_30_66
*1388 FILLER_30_74
*1389 FILLER_30_80
*1390 FILLER_30_85
*1391 FILLER_30_89
*1392 FILLER_31_103
*1393 FILLER_31_111
*1394 FILLER_31_113
*1395 FILLER_31_117
*1396 FILLER_31_125
*1397 FILLER_31_132
*1398 FILLER_31_145
*1399 FILLER_31_152
*1400 FILLER_31_156
*1401 FILLER_31_16
*1402 FILLER_31_164
*1403 FILLER_31_172
*1404 FILLER_31_180
*1405 FILLER_31_185
*1406 FILLER_31_193
*1407 FILLER_31_198
*1408 FILLER_31_206
*1409 FILLER_31_214
*1410 FILLER_31_28
*1411 FILLER_31_38
*1412 FILLER_31_45
*1413 FILLER_31_52
*1414 FILLER_31_66
*1415 FILLER_31_7
*1416 FILLER_31_74
*1417 FILLER_31_81
*1418 FILLER_31_85
*1419 FILLER_31_92
*1420 FILLER_32_100
*1421 FILLER_32_108
*1422 FILLER_32_115
*1423 FILLER_32_121
*1424 FILLER_32_128
*1425 FILLER_32_13
*1426 FILLER_32_135
*1427 FILLER_32_139
*1428 FILLER_32_141
*1429 FILLER_32_149
*1430 FILLER_32_157
*1431 FILLER_32_161
*1432 FILLER_32_168
*1433 FILLER_32_176
*1434 FILLER_32_184
*1435 FILLER_32_192
*1436 FILLER_32_197
*1437 FILLER_32_201
*1438 FILLER_32_206
*1439 FILLER_32_214
*1440 FILLER_32_24
*1441 FILLER_32_38
*1442 FILLER_32_46
*1443 FILLER_32_52
*1444 FILLER_32_60
*1445 FILLER_32_73
*1446 FILLER_32_80
*1447 FILLER_32_85
*1448 FILLER_33_108
*1449 FILLER_33_113
*1450 FILLER_33_121
*1451 FILLER_33_125
*1452 FILLER_33_133
*1453 FILLER_33_137
*1454 FILLER_33_142
*1455 FILLER_33_15
*1456 FILLER_33_153
*1457 FILLER_33_164
*1458 FILLER_33_176
*1459 FILLER_33_186
*1460 FILLER_33_195
*1461 FILLER_33_205
*1462 FILLER_33_213
*1463 FILLER_33_217
*1464 FILLER_33_23
*1465 FILLER_33_27
*1466 FILLER_33_34
*1467 FILLER_33_41
*1468 FILLER_33_52
*1469 FILLER_33_64
*1470 FILLER_33_7
*1471 FILLER_33_70
*1472 FILLER_33_78
*1473 FILLER_33_89
*1474 FILLER_33_99
*1475 FILLER_34_105
*1476 FILLER_34_11
*1477 FILLER_34_111
*1478 FILLER_34_121
*1479 FILLER_34_127
*1480 FILLER_34_136
*1481 FILLER_34_141
*1482 FILLER_34_153
*1483 FILLER_34_161
*1484 FILLER_34_172
*1485 FILLER_34_185
*1486 FILLER_34_19
*1487 FILLER_34_192
*1488 FILLER_34_197
*1489 FILLER_34_205
*1490 FILLER_34_209
*1491 FILLER_34_214
*1492 FILLER_34_27
*1493 FILLER_34_3
*1494 FILLER_34_38
*1495 FILLER_34_46
*1496 FILLER_34_57
*1497 FILLER_34_65
*1498 FILLER_34_78
*1499 FILLER_34_85
*1500 FILLER_34_92
*1501 FILLER_35_103
*1502 FILLER_35_11
*1503 FILLER_35_111
*1504 FILLER_35_117
*1505 FILLER_35_125
*1506 FILLER_35_138
*1507 FILLER_35_145
*1508 FILLER_35_156
*1509 FILLER_35_164
*1510 FILLER_35_169
*1511 FILLER_35_174
*1512 FILLER_35_184
*1513 FILLER_35_19
*1514 FILLER_35_193
*1515 FILLER_35_200
*1516 FILLER_35_214
*1517 FILLER_35_27
*1518 FILLER_35_3
*1519 FILLER_35_38
*1520 FILLER_35_50
*1521 FILLER_35_64
*1522 FILLER_35_72
*1523 FILLER_35_83
*1524 FILLER_35_93
*1525 FILLER_36_101
*1526 FILLER_36_108
*1527 FILLER_36_11
*1528 FILLER_36_123
*1529 FILLER_36_131
*1530 FILLER_36_139
*1531 FILLER_36_145
*1532 FILLER_36_159
*1533 FILLER_36_167
*1534 FILLER_36_169
*1535 FILLER_36_177
*1536 FILLER_36_185
*1537 FILLER_36_19
*1538 FILLER_36_192
*1539 FILLER_36_200
*1540 FILLER_36_214
*1541 FILLER_36_24
*1542 FILLER_36_29
*1543 FILLER_36_3
*1544 FILLER_36_43
*1545 FILLER_36_47
*1546 FILLER_36_52
*1547 FILLER_36_64
*1548 FILLER_36_70
*1549 FILLER_36_75
*1550 FILLER_36_83
*1551 FILLER_36_85
*1552 FILLER_36_93
*1553 FILLER_3_103
*1554 FILLER_3_108
*1555 FILLER_3_11
*1556 FILLER_3_113
*1557 FILLER_3_121
*1558 FILLER_3_132
*1559 FILLER_3_140
*1560 FILLER_3_150
*1561 FILLER_3_163
*1562 FILLER_3_167
*1563 FILLER_3_174
*1564 FILLER_3_182
*1565 FILLER_3_188
*1566 FILLER_3_19
*1567 FILLER_3_199
*1568 FILLER_3_206
*1569 FILLER_3_214
*1570 FILLER_3_26
*1571 FILLER_3_3
*1572 FILLER_3_37
*1573 FILLER_3_45
*1574 FILLER_3_52
*1575 FILLER_3_66
*1576 FILLER_3_70
*1577 FILLER_3_75
*1578 FILLER_3_87
*1579 FILLER_3_99
*1580 FILLER_4_103
*1581 FILLER_4_112
*1582 FILLER_4_123
*1583 FILLER_4_13
*1584 FILLER_4_131
*1585 FILLER_4_139
*1586 FILLER_4_141
*1587 FILLER_4_149
*1588 FILLER_4_157
*1589 FILLER_4_167
*1590 FILLER_4_175
*1591 FILLER_4_182
*1592 FILLER_4_192
*1593 FILLER_4_20
*1594 FILLER_4_205
*1595 FILLER_4_209
*1596 FILLER_4_214
*1597 FILLER_4_37
*1598 FILLER_4_44
*1599 FILLER_4_52
*1600 FILLER_4_59
*1601 FILLER_4_69
*1602 FILLER_4_75
*1603 FILLER_4_80
*1604 FILLER_4_92
*1605 FILLER_5_100
*1606 FILLER_5_107
*1607 FILLER_5_11
*1608 FILLER_5_111
*1609 FILLER_5_116
*1610 FILLER_5_126
*1611 FILLER_5_141
*1612 FILLER_5_152
*1613 FILLER_5_164
*1614 FILLER_5_178
*1615 FILLER_5_182
*1616 FILLER_5_187
*1617 FILLER_5_198
*1618 FILLER_5_204
*1619 FILLER_5_212
*1620 FILLER_5_3
*1621 FILLER_5_36
*1622 FILLER_5_47
*1623 FILLER_5_55
*1624 FILLER_5_61
*1625 FILLER_5_74
*1626 FILLER_5_82
*1627 FILLER_5_87
*1628 FILLER_6_107
*1629 FILLER_6_11
*1630 FILLER_6_117
*1631 FILLER_6_130
*1632 FILLER_6_138
*1633 FILLER_6_147
*1634 FILLER_6_157
*1635 FILLER_6_169
*1636 FILLER_6_177
*1637 FILLER_6_182
*1638 FILLER_6_192
*1639 FILLER_6_201
*1640 FILLER_6_214
*1641 FILLER_6_22
*1642 FILLER_6_29
*1643 FILLER_6_3
*1644 FILLER_6_43
*1645 FILLER_6_51
*1646 FILLER_6_61
*1647 FILLER_6_67
*1648 FILLER_6_77
*1649 FILLER_6_83
*1650 FILLER_6_85
*1651 FILLER_6_94
*1652 FILLER_7_100
*1653 FILLER_7_104
*1654 FILLER_7_108
*1655 FILLER_7_119
*1656 FILLER_7_128
*1657 FILLER_7_138
*1658 FILLER_7_147
*1659 FILLER_7_155
*1660 FILLER_7_164
*1661 FILLER_7_17
*1662 FILLER_7_172
*1663 FILLER_7_180
*1664 FILLER_7_202
*1665 FILLER_7_214
*1666 FILLER_7_25
*1667 FILLER_7_37
*1668 FILLER_7_47
*1669 FILLER_7_55
*1670 FILLER_7_57
*1671 FILLER_7_6
*1672 FILLER_7_64
*1673 FILLER_7_71
*1674 FILLER_7_80
*1675 FILLER_7_87
*1676 FILLER_8_109
*1677 FILLER_8_120
*1678 FILLER_8_128
*1679 FILLER_8_135
*1680 FILLER_8_139
*1681 FILLER_8_14
*1682 FILLER_8_141
*1683 FILLER_8_145
*1684 FILLER_8_156
*1685 FILLER_8_166
*1686 FILLER_8_173
*1687 FILLER_8_177
*1688 FILLER_8_181
*1689 FILLER_8_192
*1690 FILLER_8_200
*1691 FILLER_8_21
*1692 FILLER_8_211
*1693 FILLER_8_217
*1694 FILLER_8_27
*1695 FILLER_8_3
*1696 FILLER_8_33
*1697 FILLER_8_40
*1698 FILLER_8_47
*1699 FILLER_8_60
*1700 FILLER_8_67
*1701 FILLER_8_80
*1702 FILLER_8_88
*1703 FILLER_8_97
*1704 FILLER_9_100
*1705 FILLER_9_104
*1706 FILLER_9_108
*1707 FILLER_9_11
*1708 FILLER_9_119
*1709 FILLER_9_125
*1710 FILLER_9_130
*1711 FILLER_9_141
*1712 FILLER_9_147
*1713 FILLER_9_151
*1714 FILLER_9_164
*1715 FILLER_9_176
*1716 FILLER_9_19
*1717 FILLER_9_191
*1718 FILLER_9_200
*1719 FILLER_9_204
*1720 FILLER_9_214
*1721 FILLER_9_23
*1722 FILLER_9_3
*1723 FILLER_9_37
*1724 FILLER_9_45
*1725 FILLER_9_50
*1726 FILLER_9_66
*1727 FILLER_9_74
*1728 FILLER_9_81
*1729 FILLER_9_88
*1730 FILLER_9_92
*1731 PHY_0
*1732 PHY_1
*1733 PHY_10
*1734 PHY_11
*1735 PHY_12
*1736 PHY_13
*1737 PHY_14
*1738 PHY_15
*1739 PHY_16
*1740 PHY_17
*1741 PHY_18
*1742 PHY_19
*1743 PHY_2
*1744 PHY_20
*1745 PHY_21
*1746 PHY_22
*1747 PHY_23
*1748 PHY_24
*1749 PHY_25
*1750 PHY_26
*1751 PHY_27
*1752 PHY_28
*1753 PHY_29
*1754 PHY_3
*1755 PHY_30
*1756 PHY_31
*1757 PHY_32
*1758 PHY_33
*1759 PHY_34
*1760 PHY_35
*1761 PHY_36
*1762 PHY_37
*1763 PHY_38
*1764 PHY_39
*1765 PHY_4
*1766 PHY_40
*1767 PHY_41
*1768 PHY_42
*1769 PHY_43
*1770 PHY_44
*1771 PHY_45
*1772 PHY_46
*1773 PHY_47
*1774 PHY_48
*1775 PHY_49
*1776 PHY_5
*1777 PHY_50
*1778 PHY_51
*1779 PHY_52
*1780 PHY_53
*1781 PHY_54
*1782 PHY_55
*1783 PHY_56
*1784 PHY_57
*1785 PHY_58
*1786 PHY_59
*1787 PHY_6
*1788 PHY_60
*1789 PHY_61
*1790 PHY_62
*1791 PHY_63
*1792 PHY_64
*1793 PHY_65
*1794 PHY_66
*1795 PHY_67
*1796 PHY_68
*1797 PHY_69
*1798 PHY_7
*1799 PHY_70
*1800 PHY_71
*1801 PHY_72
*1802 PHY_73
*1803 PHY_8
*1804 PHY_9
*1805 TAP_100
*1806 TAP_101
*1807 TAP_102
*1808 TAP_103
*1809 TAP_104
*1810 TAP_105
*1811 TAP_106
*1812 TAP_107
*1813 TAP_108
*1814 TAP_109
*1815 TAP_110
*1816 TAP_111
*1817 TAP_112
*1818 TAP_113
*1819 TAP_114
*1820 TAP_115
*1821 TAP_116
*1822 TAP_117
*1823 TAP_118
*1824 TAP_119
*1825 TAP_120
*1826 TAP_121
*1827 TAP_122
*1828 TAP_123
*1829 TAP_124
*1830 TAP_125
*1831 TAP_126
*1832 TAP_127
*1833 TAP_128
*1834 TAP_129
*1835 TAP_130
*1836 TAP_131
*1837 TAP_132
*1838 TAP_133
*1839 TAP_134
*1840 TAP_135
*1841 TAP_136
*1842 TAP_137
*1843 TAP_138
*1844 TAP_139
*1845 TAP_140
*1846 TAP_141
*1847 TAP_142
*1848 TAP_143
*1849 TAP_144
*1850 TAP_145
*1851 TAP_146
*1852 TAP_147
*1853 TAP_148
*1854 TAP_149
*1855 TAP_150
*1856 TAP_151
*1857 TAP_152
*1858 TAP_153
*1859 TAP_154
*1860 TAP_155
*1861 TAP_156
*1862 TAP_157
*1863 TAP_158
*1864 TAP_159
*1865 TAP_160
*1866 TAP_161
*1867 TAP_162
*1868 TAP_163
*1869 TAP_164
*1870 TAP_165
*1871 TAP_166
*1872 TAP_167
*1873 TAP_168
*1874 TAP_169
*1875 TAP_170
*1876 TAP_171
*1877 TAP_172
*1878 TAP_173
*1879 TAP_174
*1880 TAP_175
*1881 TAP_176
*1882 TAP_177
*1883 TAP_178
*1884 TAP_179
*1885 TAP_180
*1886 TAP_181
*1887 TAP_182
*1888 TAP_183
*1889 TAP_184
*1890 TAP_185